A0A4W3JAN5_min
  PyMOL3.0          3D                             0

 48 47  0  0  0  0  0  0  0  0999 V2000
  -19.5140    9.4080   21.6510 N   0  0  0  0  0  0  0  0  0  0  0  0
  -18.2550    9.3430   22.4400 C   0  0  0  0  0  0  0  0  0  0  0  0
  -18.4640    8.8540   23.8730 C   0  0  0  0  0  0  0  0  0  0  0  0
  -17.5290    8.2940   24.4270 O   0  0  0  0  0  0  0  0  0  0  0  0
  -17.4850   10.6750   22.4340 C   0  0  0  0  0  0  0  0  0  0  0  0
  -16.6700   10.8470   21.1440 C   0  0  0  0  0  0  0  0  0  0  0  0
  -15.4380    9.5460   20.8330 S   0  0  0  0  0  0  0  0  0  0  0  0
  -14.2010    9.9170   22.1020 C   0  0  0  0  0  0  0  0  0  0  0  0
  -19.3355    9.8650   20.7682 H   0  0  0  0  0  0  0  0  0  0  0  0
  -19.8556    8.4724   21.4834 H   0  0  0  0  0  0  0  0  0  0  0  0
  -17.6445    8.5976   21.9303 H   0  0  0  0  0  0  0  0  0  0  0  0
  -16.7946   10.6749   23.2774 H   0  0  0  0  0  0  0  0  0  0  0  0
  -18.1964   11.4967   22.5168 H   0  0  0  0  0  0  0  0  0  0  0  0
  -16.1097   11.7748   21.2598 H   0  0  0  0  0  0  0  0  0  0  0  0
  -17.3647   10.8633   20.3042 H   0  0  0  0  0  0  0  0  0  0  0  0
  -13.3426   10.4048   21.6402 H   0  0  0  0  0  0  0  0  0  0  0  0
  -14.6352   10.5795   22.8508 H   0  0  0  0  0  0  0  0  0  0  0  0
  -13.8791    8.9909   22.5782 H   0  0  0  0  0  0  0  0  0  0  0  0
  -19.6480    9.0130   24.4700 N   0  0  0  0  0  0  0  0  0  0  0  0
  -19.9310    8.6100   25.8630 C   0  0  0  0  0  0  0  0  0  0  0  0
  -19.6970    7.1150   26.1420 C   0  0  0  0  0  0  0  0  0  0  0  0
  -19.1770    6.7560   27.2030 O   0  0  0  0  0  0  0  0  0  0  0  0
  -21.3850    8.9760   26.1790 C   0  0  0  0  0  0  0  0  0  0  0  0
  -21.5970   10.4960   26.0860 C   0  0  0  0  0  0  0  0  0  0  0  0
  -23.0370   10.9210   26.3780 C   0  0  0  0  0  0  0  0  0  0  0  0
  -23.2170   12.1450   26.5320 O   0  0  0  0  0  0  0  0  0  0  0  0
  -23.9110   10.0300   26.3800 O   0  5  0  0  0  0  0  0  0  0  0  0
  -19.2302    9.1426   26.5059 H   0  0  0  0  0  0  0  0  0  0  0  0
  -21.6141    8.6526   27.1944 H   0  0  0  0  0  0  0  0  0  0  0  0
  -22.0427    8.4783   25.4664 H   0  0  0  0  0  0  0  0  0  0  0  0
  -21.3728   10.7926   25.0614 H   0  0  0  0  0  0  0  0  0  0  0  0
  -20.9384   10.9832   26.8050 H   0  0  0  0  0  0  0  0  0  0  0  0
  -20.3953    9.4343   23.9369 H   0  0  0  0  0  0  0  0  0  0  0  0
  -19.9680    6.2700   25.1420 N   0  0  0  0  0  0  0  0  0  0  0  0
  -19.7960    4.8150   25.1960 C   0  0  0  0  0  0  0  0  0  0  0  0
  -18.3390    4.3400   25.0980 C   0  0  0  0  0  0  0  0  0  0  0  0
  -18.0970    3.1430   25.2060 O   0  0  0  0  0  0  0  0  0  0  0  0
  -20.6550    4.1700   24.0880 C   0  0  0  0  0  0  0  0  0  0  0  0
  -22.1400    4.4120   24.2840 C   0  0  0  0  0  0  0  0  0  0  0  0
  -22.9310    4.3120   23.2430 N   0  0  0  0  0  0  0  0  0  0  0  0
  -22.5960    4.7270   25.3630 O   0  0  0  0  0  0  0  0  0  0  0  0
  -20.1277    4.4951   26.1838 H   0  0  0  0  0  0  0  0  0  0  0  0
  -17.5330    5.0555   24.9351 H   0  0  0  0  0  0  0  0  0  0  0  0
  -20.4888    3.0935   24.1271 H   0  0  0  0  0  0  0  0  0  0  0  0
  -20.3566    4.5879   23.1265 H   0  0  0  0  0  0  0  0  0  0  0  0
  -23.9215    4.4825   23.3431 H   0  0  0  0  0  0  0  0  0  0  0  0
  -20.3190    6.6652   24.2813 H   0  0  0  0  0  0  0  0  0  0  0  0
  -22.5498    4.0645   22.3410 H   0  0  0  0  0  0  0  0  0  0  0  0
  1  2  1  0  0  0  0
  1  9  1  0  0  0  0
  1 10  1  0  0  0  0
  2  3  1  0  0  0  0
  2  5  1  0  0  0  0
  2 11  1  0  0  0  0
  3  4  2  0  0  0  0
  3 19  1  0  0  0  0
  5  6  1  0  0  0  0
  5 12  1  0  0  0  0
  5 13  1  0  0  0  0
  6  7  1  0  0  0  0
  6 14  1  0  0  0  0
  6 15  1  0  0  0  0
  7  8  1  0  0  0  0
  8 16  1  0  0  0  0
  8 17  1  0  0  0  0
  8 18  1  0  0  0  0
 19 20  1  0  0  0  0
 19 33  1  0  0  0  0
 20 21  1  0  0  0  0
 20 23  1  0  0  0  0
 20 28  1  0  0  0  0
 21 22  2  0  0  0  0
 21 34  1  0  0  0  0
 23 24  1  0  0  0  0
 23 29  1  0  0  0  0
 23 30  1  0  0  0  0
 24 25  1  0  0  0  0
 24 31  1  0  0  0  0
 24 32  1  0  0  0  0
 25 26  2  0  0  0  0
 25 27  1  0  0  0  0
 34 35  1  0  0  0  0
 34 47  1  0  0  0  0
 35 36  1  0  0  0  0
 35 38  1  0  0  0  0
 35 42  1  0  0  0  0
 36 37  2  0  0  0  0
 36 43  1  0  0  0  0
 38 39  1  0  0  0  0
 38 44  1  0  0  0  0
 38 45  1  0  0  0  0
 39 40  1  0  0  0  0
 39 41  2  0  0  0  0
 40 46  1  0  0  0  0
 40 48  1  0  0  0  0
M  END
